examples/test_perturbation_outputs/pert_min_cost/pglib_opf_case14_ieee.m
%% MATPOWER Case Format : Version 2
function mpc = pglib_opf_case14_ieee
mpc.version = '2';

%%-----  Power Flow Data  -----%%
%% system MVA base
mpc.baseMVA = 100.0;
%% bus data
%    bus_i    type    Pd    Qd    Gs    Bs    area    Vm    Va    baseKV    zone    Vmax    Vmin
mpc.bus = [
	1	3	0.0	0.0	0.0	0.0	1	1.0	0.0	1.0	1	1.06	0.94				
	2	2	21.7	12.7	0.0	0.0	1	1.0	0.0	1.0	1	1.06	0.94				
	3	2	94.2	19.0	0.0	0.0	1	1.0	0.0	1.0	1	1.06	0.94				
	4	1	47.8	-3.9	0.0	0.0	1	1.0	0.0	1.0	1	1.06	0.94				
	5	1	7.6	1.6	0.0	0.0	1	1.0	0.0	1.0	1	1.06	0.94				
	6	2	11.2	7.5	0.0	0.0	1	1.0	0.0	1.0	1	1.06	0.94				
	7	1	0.0	0.0	0.0	0.0	1	1.0	0.0	1.0	1	1.06	0.94				
	8	2	0.0	0.0	0.0	0.0	1	1.0	0.0	1.0	1	1.06	0.94				
	9	1	29.5	16.6	0.0	19.0	1	1.0	0.0	1.0	1	1.06	0.94				
	10	1	9.0	5.8	0.0	0.0	1	1.0	0.0	1.0	1	1.06	0.94				
	11	1	3.5000000000000004	1.8000000000000003	0.0	0.0	1	1.0	0.0	1.0	1	1.06	0.94				
	12	1	6.1	1.6	0.0	0.0	1	1.0	0.0	1.0	1	1.06	0.94				
	13	1	13.5	5.8	0.0	0.0	1	1.0	0.0	1.0	1	1.06	0.94				
	14	1	14.899999999999999	5.0	0.0	0.0	1	1.0	0.0	1.0	1	1.06	0.94				
];

%% generator data
%    bus    Pg    Qg    Qmax    Qmin    Vg    mBase    status    Pmax    Pmin    Pc1    Pc2    Qc1min    Qc1max    Qc2min    Qc2max    ramp_agc    ramp_10    ramp_30    ramp_q    apf
mpc.gen = [
	1	170.0	5.0	10.0	0.0	1.0	100.0	1	340.0	0.0															
	2	29.5	0.0	30.0	-30.0	1.0	100.0	1	59.0	0.0															
	3	0.0	20.0	40.0	0.0	1.0	100.0	1	0.0	0.0															
	6	0.0	9.0	24.0	-6.0	1.0	100.0	1	0.0	0.0															
	8	0.0	9.0	24.0	-6.0	1.0	100.0	1	0.0	0.0															
];

%% branch data
%    f_bus    t_bus    r    x    b    rateA    rateB    rateC    ratio    angle    status    angmin    angmax
mpc.branch = [
	1	2	0.01961298252152938	0.05988135065943029	0.13418884500826553	472.0	472.0	472.0	0	0	1	-29.999999999999996	29.999999999999996								
	1	5	0.056365694896524515	0.23268117994970974	0.11622637690996429	128.0	128.0	128.0	0	0	1	-29.999999999999996	29.999999999999996								
	2	3	0.04739192113409298	0.1996666809730997	0.000341347215977939	145.0	145.0	145.0	0	0	1	-29.999999999999996	29.999999999999996								
	2	4	0.05709466633531249	0.17323888206795054	0.46038073310178845	158.0	158.0	158.0	0	0	1	-29.999999999999996	29.999999999999996								
	2	5	0.056157610748636684	0.17146041934547748	0.0066373993480710654	161.0	161.0	161.0	0	0	1	-29.999999999999996	29.999999999999996								
	3	4	0.06688976022620777	0.17072368368944074	0.12801036494675228	160.0	160.0	160.0	0	0	1	-29.999999999999996	29.999999999999996								
	4	5	0.013430934176851832	0.042365291681816276	0.00034072652179741167	664.0	664.0	664.0	0	0	1	-29.999999999999996	29.999999999999996								
	4	7	0.0016207849936170293	0.20982736182194336	0.0003413300070738173	141.0	141.0	141.0	0.978	0.0	1	-29.999999999999996	29.999999999999996								
	4	9	0.011597654672500698	0.5611832955921227	0.00034060533989010137	53.0	53.0	53.0	0.969	0.0	1	-29.999999999999996	29.999999999999996								
	5	6	0.0023424577010263646	0.2522490425029456	0.0003407407408085182	117.0	117.0	117.0	0.932	0.0	1	-29.999999999999996	29.999999999999996								
	6	11	0.09565924553231865	0.2003223724433341	0.006241144418440372	134.0	134.0	134.0	0	0	1	-29.999999999999996	29.999999999999996								
	6	12	0.1266956006145777	0.2636888599189144	0.08743130235876902	104.0	104.0	104.0	0	0	1	-29.999999999999996	29.999999999999996								
	6	13	0.06554263732243609	0.1290739048631225	0.04423722502538391	200.99999999999997	200.99999999999997	200.99999999999997	0	0	1	-29.999999999999996	29.999999999999996								
	7	8	0.0011322337373657655	0.17537648760321858	0.2949440022799724	167.0	167.0	167.0	0	0	1	-29.999999999999996	29.999999999999996								
	7	9	0.00044620189739516113	0.11009675338491737	0.005337196946267484	267.0	267.0	267.0	0	0	1	-29.999999999999996	29.999999999999996								
	9	10	0.03172210052212946	0.08426650424835193	0.10088974909247325	325.0	325.0	325.0	0	0	1	-29.999999999999996	29.999999999999996								
	9	14	0.12979134955214264	0.27608366516500377	0.00034301263043885	99.0	99.0	99.0	0	0	1	-29.999999999999996	29.999999999999996								
	10	11	0.08088127621849346	0.18933413406231875	0.12772616826743585	141.0	141.0	141.0	0	0	1	-29.999999999999996	29.999999999999996								
	12	13	0.2188741774625687	0.19802901744609577	0.0003426128685058628	99.0	99.0	99.0	0	0	1	-29.999999999999996	29.999999999999996								
	13	14	0.16738284986554564	0.3407977417623277	0.001082364157530448	76.0	76.0	76.0	0	0	1	-29.999999999999996	29.999999999999996								
];

%%-----  OPF Data  -----%%
%% cost data
%    1    startup    shutdown    n    x1    y1    ...    xn    yn
%    2    startup    shutdown    n    c(n-1)    ...    c0
mpc.gencost = [
	2	0.0	0.0	2	7.9209510000000005	0.0
	2	0.0	0.0	2	23.269494	0.0
	2	0.0	0.0	2	0.0	0.0
	2	0.0	0.0	2	0.0	0.0
	2	0.0	0.0	2	0.0	0.0
];

